KPG193_ver1_2/KPG193_ver1_2/network/m/KPG193_ver1_2.m
function mpc = KPG193_ver1_2

mpc.version = '2';

%-----  Power Flow Data  -----%%
% system MVA base
mpc.baseMVA = 100;
    
% bus data
%	bus_i	type	Pd	Qd	Gs	Bs	area	Vm	Va	baseKV	zone	Vmax	Vmin
mpc.bus = [
	1	2	352.550831	36.13326117	0	0	6	1.1	11.63376182	345	1	1.1	0.9;
	2	2	316.9988226	32.03945279	0	0	6	1.099492678	1.997501332	154	1	1.1	0.9;
	3	1	245.4528709	40.96753811	0	0	6	1.096033101	7.107043847	345	1	1.1	0.9;
	4	1	220.264339	24.17854607	0	0	6	1.096170123	7.032357578	345	1	1.1	0.9;
	5	2	-436.401146	15.44922261	0	0	6	1.1	15.14490259	154	1	1.1	0.9;
	6	1	-18.32275461	3.535921976	0	0	6	1.092616966	6.523386649	154	1	1.1	0.9;
	7	2	52.22398801	5.582642303	0	0	6	1.1	14.18257493	345	1	1.1	0.9;
	8	2	171.8254309	19.58270797	0	0	6	1.098378314	5.304061287	154	1	1.1	0.9;
	9	1	423.5476272	44.38772022	0	0	6	1.082527809	-0.601685677	154	1	1.1	0.9;
	10	1	56.63426801	5.809010735	0	0	6	1.091755017	8.873313786	154	1	1.1	0.9;
	11	1	96.72228404	10.76344019	0	0	6	1.096021499	5.449909702	154	1	1.1	0.9;
	12	1	60.10005287	8.540729071	0	0	4	1.097874565	0.940849306	154	1	1.1	0.9;
	13	1	-19.35243233	5.196214548	0	0	6	1.1	5.954197522	765	1	1.1	0.9;
	14	1	63.24254016	10.74299496	0	0	6	1.088045115	4.104543133	154	1	1.1	0.9;
	15	1	110.7055336	12.61521376	0	0	6	1.089569198	2.550830233	154	1	1.1	0.9;
	16	1	-63.16684305	4.462870552	0	0	6	1.096783792	2.908388633	154	1	1.1	0.9;
	17	1	99.81476407	11.65056469	0	0	6	1.084413938	0.938919176	154	1	1.1	0.9;
	18	1	799.2024156	80.15461276	0	0	5	1.091982747	-2.863079969	154	1	1.1	0.9;
	19	1	210.6267659	21.18962598	0	0	2	1.093438714	-2.869806492	345	1	1.1	0.9;
	20	1	471.3937062	47.68660988	0	0	5	1.09069392	-2.781198657	154	1	1.1	0.9;
	21	1	1419.099955	142.4423266	0	0	5	1.090655037	-2.959499288	154	1	1.1	0.9;
	22	1	246.0889825	24.7299606	0	0	5	1.094584034	-2.062235133	345	1	1.1	0.9;
	23	1	451.4797398	45.2793401	0	0	5	1.091484122	-3.013276223	154	1	1.1	0.9;
	24	2	512.8012857	51.48853131	0	0	5	1.099009778	1.690087461	154	1	1.1	0.9;
	25	2	957.9045079	96.03856314	0	0	2	1.092138966	-3.000694401	154	1	1.1	0.9;
	26	2	1384.066862	139.4576905	0	0	5	1.096435206	-0.804604309	345	1	1.1	0.9;
	27	1	605.2699194	61.22889173	0	0	5	1.096509926	-1.220435837	765	1	1.1	0.9;
	28	2	916.915422	92.00089642	0	0	5	1.093930658	-2.127465603	154	1	1.1	0.9;
	29	1	247.1116476	25.19831637	0	0	5	1.089097951	-1.654285501	154	1	1.1	0.9;
	30	2	250.6159786	25.16632473	0	0	5	1.098183463	0.154546373	154	1	1.1	0.9;
	31	1	1524.259263	153.7856153	0	0	5	1.077654387	-5.122864179	154	1	1.1	0.9;
	32	1	2447.946988	245.298345	0	0	5	1.086235072	-1.401061502	154	1	1.1	0.9;
	33	2	276.1639031	33.11847197	0	0	4	1.094017771	-2.725451766	154	1	1.1	0.9;
	34	1	3555.324509	360.7844974	0	0	5	1.092048279	-1.180496258	154	1	1.1	0.9;
	35	1	-146.6661767	12.39954598	0	0	4	1.098802243	0.177854693	154	1	1.1	0.9;
	36	2	703.2959788	71.18648273	0	0	4	1.093335355	-2.697905379	345	1	1.1	0.9;
	37	2	897.5840086	90.38020729	0	0	4	1.094969317	-2.582175858	154	1	1.1	0.9;
	38	1	140.1324315	14.04552505	0	0	4	1.093945717	-2.773806298	154	1	1.1	0.9;
	39	1	601.9895907	60.50867533	0	0	4	1.094265049	-2.741373716	345	1	1.1	0.9;
	40	2	108.0675095	10.98065239	0	0	4	1.09902888	0.228108512	154	1	1.1	0.9;
	41	1	161.0601776	16.72358385	0	0	4	1.1	-0.202909811	765	1	1.1	0.9;
	42	1	77.86682554	10.32257149	0	0	4	1.098479099	0.498727043	154	1	1.1	0.9;
	43	2	1610.245306	162.4950267	0	0	4	1.09617458	-2.464134225	345	1	1.1	0.9;
	44	2	452.7959176	47.34332488	0	0	4	1.098464588	0.70219747	154	1	1.1	0.9;
	45	1	330.4566442	33.67372918	0	0	14	0.996736499	-3.68207754	154	1	1.1	0.9;
	46	1	43.40818003	8.176879324	0	0	14	1.051741847	-2.77952699	154	1	1.1	0.9;
	47	1	813.3927779	82.8393089	0	0	14	1.024159269	-2.536577416	154	1	1.1	0.9;
	48	1	117.2548679	13.4835018	0	0	14	1.003271989	-2.379067046	154	1	1.1	0.9;
	49	2	33.23442679	4.797808314	0	0	14	1.069828248	3.896010104	154	1	1.1	0.9;
	50	1	635.3495923	64.78890856	0	0	14	1.025074725	-1.902736312	154	1	1.1	0.9;
	51	1	-115.9108174	22.1972891	0	0	13	1.041225973	-2.536418559	154	1	1.1	0.9;
	52	3	211.809069	24.19455109	0	0	14	1	0	345	1	1.1	0.9;
	53	1	-329.651327	6.213842876	0	0	14	1.052446061	0.877800312	154	1	1.1	0.9;
	54	1	35.39323404	6.800374662	0	0	14	1.047754108	-1.340636393	345	1	1.1	0.9;
	55	1	440.4884174	46.74582584	0	0	14	1.050740595	0.338608121	154	1	1.1	0.9;
	56	1	339.4938426	34.60933756	0	0	14	1.019078111	-2.176631087	345	1	1.1	0.9;
	57	1	158.7777734	17.9247688	0	0	14	1.048296466	-2.806391014	765	1	1.1	0.9;
	58	1	160.1849132	16.82023905	0	0	14	0.999082972	-2.495469109	154	1	1.1	0.9;
	59	1	32.28227328	7.386593886	0	0	14	1.067550132	2.554403283	154	1	1.1	0.9;
	60	1	475.5835847	49.31208856	0	0	14	1.030417515	-2.323153115	154	1	1.1	0.9;
	61	1	36.32531003	5.051507535	0	0	14	1.050388363	-2.261769012	154	1	1.1	0.9;
	62	1	-37.91887618	7.232877733	0	0	14	1.054264433	-2.898810354	154	1	1.1	0.9;
	63	1	72.14367202	20.78621876	0	0	12	1.088117214	3.125859817	154	1	1.1	0.9;
	64	1	1601.523526	164.8328802	0	0	12	1.045931638	-5.329888134	154	1	1.1	0.9;
	65	1	21.30709429	5.677183115	0	0	12	1.046734201	-5.22529593	154	1	1.1	0.9;
	66	1	92.07951901	10.37905328	0	0	12	1.077656608	-0.106684724	154	1	1.1	0.9;
	67	1	286.2382275	30.54430327	0	0	12	1.08924923	3.80774468	154	1	1.1	0.9;
	68	1	93.03508782	13.76859512	0	0	12	1.071247187	-1.913472086	154	1	1.1	0.9;
	69	1	0.779762716	1.924085707	0	0	12	1.083166198	3.599715574	154	1	1.1	0.9;
	70	1	270.7549221	29.91110782	0	0	12	1.086572936	2.463868459	345	1	1.1	0.9;
	71	1	-377.4576836	6.842791164	0	0	12	1.088305084	3.088097519	154	1	1.1	0.9;
	72	2	93.29822504	12.33222564	0	0	12	1.096767782	7.418252987	765	1	1.1	0.9;
	73	1	33.40517806	7.820806855	0	0	12	1.047595911	-5.033407809	154	1	1.1	0.9;
	74	1	-300.7247485	3.531500143	0	0	12	1.088432277	4.84053043	345	1	1.1	0.9;
	75	1	12.47697028	6.953153129	0	0	10	1.076548721	-0.09552287	154	1	1.1	0.9;
	76	1	16.19227771	9.447857539	0	0	10	1.07159866	-0.820197293	154	1	1.1	0.9;
	77	1	61.03879284	7.534178308	0	0	10	1.0776123	0.042534929	154	1	1.1	0.9;
	78	2	598.3448537	61.85057754	0	0	10	1.072873219	-1.851514039	154	1	1.1	0.9;
	79	2	831.3112478	86.87353744	0	0	10	1.073622369	2.874283942	345	1	1.1	0.9;
	80	1	509.8167988	51.94988202	0	0	10	1.080027065	0.473041052	154	1	1.1	0.9;
	81	1	26.54268288	3.118348337	0	0	10	1.077177525	-0.124398794	154	1	1.1	0.9;
	82	1	149.2319298	23.73256606	0	0	10	1.076213922	-0.579920272	154	1	1.1	0.9;
	83	1	88.61860035	9.263372415	0	0	10	1.08005302	-0.25839823	154	1	1.1	0.9;
	84	1	170.531737	18.43675455	0	0	10	1.076313736	-0.666563786	154	1	1.1	0.9;
	85	1	61.92760228	12.73974214	0	0	10	1.076454783	-0.419263174	154	1	1.1	0.9;
	86	1	10.28567716	5.452349914	0	0	10	1.075328665	0.117262217	154	1	1.1	0.9;
	87	1	401.0614883	40.93620837	0	0	10	1.077931636	-0.06955781	154	1	1.1	0.9;
	88	2	219.3608261	38.1307254	0	0	10	1.073999207	0.827631441	345	1	1.1	0.9;
	89	1	-73.68627371	5.784621706	0	0	10	1.077613882	-0.19963395	154	1	1.1	0.9;
	90	2	2495.126062	252.3145989	0	0	10	1.070041667	-2.1677002	345	1	1.1	0.9;
	91	2	32.41228162	14.64174626	0	0	9	1.081957172	2.22085261	154	1	1.1	0.9;
	92	1	108.8802643	21.20138383	0	0	10	1.078740306	0.882374643	345	1	1.1	0.9;
	93	1	174.3515285	19.41071613	0	0	10	1.06751588	-2.240911313	154	1	1.1	0.9;
	94	1	99.69485533	11.186309	0	0	10	1.076850296	-0.173008987	154	1	1.1	0.9;
	95	1	36.16800013	6.689314029	0	0	10	1.075704643	-0.099767157	154	1	1.1	0.9;
	96	1	45.22771901	6.248822241	0	0	10	1.075515396	-0.780873413	154	1	1.1	0.9;
	97	1	54.67403112	7.320707655	0	0	10	1.075747482	-0.585432991	154	1	1.1	0.9;
	98	1	28.74160109	13.58410999	0	0	10	1.075214327	-0.343677772	154	1	1.1	0.9;
	99	1	32.04895391	9.260908691	0	0	10	1.079590477	0.427209744	345	1	1.1	0.9;
	100	1	812.0858895	81.33025956	0	0	2	1.091434827	-3.034978759	154	1	1.1	0.9;
	101	1	804.904324	80.72510276	0	0	1	1.091893314	-3.019647659	154	1	1.1	0.9;
	102	1	769.0242172	77.28499942	0	0	2	1.092583782	-2.83082351	154	1	1.1	0.9;
	103	1	511.860917	51.39334699	0	0	2	1.09155549	-3.014308977	154	1	1.1	0.9;
	104	1	608.7791716	61.10411514	0	0	2	1.092996986	-2.903914772	154	1	1.1	0.9;
	105	1	471.2211565	47.23963703	0	0	2	1.093332387	-2.881943752	345	1	1.1	0.9;
	106	1	630.2808766	63.19207526	0	0	2	1.09144946	-3.033352867	345	1	1.1	0.9;
	107	1	460.1474089	48.1537246	0	0	11	1.047064368	-3.642758349	345	1	1.1	0.9;
	108	2	646.7427318	69.23526848	0	0	11	1.054496596	-1.072972199	345	1	1.1	0.9;
	109	1	216.4051746	22.66123223	0	0	11	1.055874946	-3.259177998	154	1	1.1	0.9;
	110	1	375.2634712	41.66545229	0	0	11	1.038408214	-7.101515901	154	1	1.1	0.9;
	111	1	1347.471982	137.4293654	0	0	11	1.047540049	-3.790576628	154	1	1.1	0.9;
	112	1	516.3518442	52.18138934	0	0	11	1.050931283	-3.962036464	154	1	1.1	0.9;
	113	2	555.2010451	56.21636251	0	0	11	1.045774257	-4.250086061	154	1	1.1	0.9;
	114	1	907.119461	91.66328349	0	0	11	1.061332997	-1.55855603	154	1	1.1	0.9;
	115	1	262.3679689	26.46470728	0	0	11	1.045945695	-4.626594203	154	1	1.1	0.9;
	116	1	170.1289465	18.62208543	0	0	12	1.043845138	-5.637856399	154	1	1.1	0.9;
	117	1	27.4824583	5.089447046	0	0	12	1.077214483	2.417528828	154	1	1.1	0.9;
	118	1	236.3195502	27.2066835	0	0	11	1.047194332	-3.637990084	154	1	1.1	0.9;
	119	4	0	0	0	0	11	1	0	154	1	1.1	0.9;
	120	1	77.65275212	8.600465185	0	0	11	1.046146502	-3.558146927	154	1	1.1	0.9;
	121	1	321.4264072	34.71971791	0	0	11	1.048564638	-4.438489946	345	1	1.1	0.9;
	122	1	768.3736852	77.46992581	0	0	11	1.055893158	-2.173863242	345	1	1.1	0.9;
	123	1	195.057807	20.23373784	0	0	8	1.080469553	-2.232731259	154	1	1.1	0.9;
	124	1	152.5575272	16.63573554	0	0	8	1.081806027	-1.628911148	154	1	1.1	0.9;
	125	1	232.6553553	24.81580483	0	0	8	1.078656033	-2.340365888	154	1	1.1	0.9;
	126	2	1097.528285	117.1568882	0	0	8	1.099502093	4.26573858	765	1	1.1	0.9;
	127	1	1039.857855	104.142257	0	0	8	1.06829509	-5.259778011	154	1	1.1	0.9;
	128	1	270.477911	32.45888342	0	0	8	1.077158832	-3.405197136	154	1	1.1	0.9;
	129	2	224.2876808	24.40550286	0	0	8	1.1	3.525088725	345	1	1.1	0.9;
	130	1	103.6119464	11.74698087	0	0	8	1.085797565	-0.337790602	154	1	1.1	0.9;
	131	1	380.140168	38.06209966	0	0	8	1.07093084	-4.591545096	154	1	1.1	0.9;
	132	2	1653.819823	172.7029891	0	0	8	1.099189104	6.241705734	154	1	1.1	0.9;
	133	2	172.6221237	19.68808733	0	0	9	1.08714908	0.083791946	345	1	1.1	0.9;
	134	2	647.4568296	64.96284931	0	0	8	1.075203259	-3.903419918	154	1	1.1	0.9;
	135	1	2299.514116	230.7097987	0	0	8	1.092429782	0.189648557	345	1	1.1	0.9;
	136	1	219.6106724	22.83774702	0	0	8	1.094201685	1.476981729	154	1	1.1	0.9;
	137	1	1460.988396	146.523605	0	0	8	1.08197425	-2.710427352	154	1	1.1	0.9;
	138	1	59.09854623	6.295844436	0	0	8	1.093779955	0.758690592	345	1	1.1	0.9;
	139	2	97.15561227	15.68196179	0	0	8	1.1	7.949242265	345	1	1.1	0.9;
	140	1	152.1513193	17.82885824	0	0	8	1.093773862	1.510811609	154	1	1.1	0.9;
	141	2	216.9009282	22.35806548	0	0	13	1.041446835	-1.27149673	765	1	1.1	0.9;
	142	1	912.2513416	93.63803182	0	0	13	1.022719286	-3.276540368	154	1	1.1	0.9;
	143	1	680.3381511	68.3817352	0	0	13	1.04002826	-1.682566123	154	1	1.1	0.9;
	144	1	495.5056649	49.97973019	0	0	13	1.036275556	-2.488915526	154	1	1.1	0.9;
	145	2	672.5128064	67.74039475	0	0	13	1.046747505	-2.080880728	154	1	1.1	0.9;
	146	1	389.0702074	39.07911205	0	0	13	1.034929435	-2.62136655	154	1	1.1	0.9;
	147	2	420.5202672	42.37810284	0	0	13	1.037323455	-1.776550572	345	1	1.1	0.9;
	148	1	734.6254403	76.50658215	0	0	13	1.021626584	-3.426148616	154	1	1.1	0.9;
	149	2	2093.148929	210.8970818	0	0	13	1.045038402	-1.867087507	345	1	1.1	0.9;
	150	1	629.7147522	65.53358752	0	0	13	1.042924835	-1.892875359	154	1	1.1	0.9;
	151	1	80.87799154	8.087799154	0	0	13	1.035915104	-2.190692973	154	1	1.1	0.9;
	152	2	2809.127066	281.4696652	0	0	13	1.045113626	-2.123907817	154	1	1.1	0.9;
	153	1	580.3882233	58.51934691	0	0	13	1.035948963	-2.180375666	154	1	1.1	0.9;
	154	1	409.6978643	41.07671418	0	0	1	1.092608939	-2.895594171	154	1	1.1	0.9;
	155	1	651.2773793	65.24699575	0	0	1	1.092359994	-2.921657002	345	1	1.1	0.9;
	156	1	409.2859112	41.13874854	0	0	1	1.092849392	-2.874952958	154	1	1.1	0.9;
	157	1	441.7524249	44.27349719	0	0	1	1.092448797	-2.909969046	154	1	1.1	0.9;
	158	2	639.4816459	64.13101151	0	0	1	1.093034856	-2.88856102	345	1	1.1	0.9;
	159	1	473.34072	47.48005237	0	0	4	1.09316288	-2.888271187	154	1	1.1	0.9;
	160	1	680.5184272	68.12057126	0	0	1	1.0925151	-2.914707158	154	1	1.1	0.9;
	161	1	97.37817027	10.55004308	0	0	4	1.0949524	-2.481834872	154	1	1.1	0.9;
	162	1	737.345745	74.86024455	0	0	3	1.094159766	-2.846666054	345	1	1.1	0.9;
	163	2	1170.20909	117.7413975	0	0	3	1.099223273	1.121170162	154	1	1.1	0.9;
	164	4	0	0	0	0	3	0.580012445	0	154	1	1.1	0.10;
	165	2	735.8887031	73.76596499	0	0	2	1.092494497	-2.896087717	154	1	1.1	0.9;
	166	2	986.6415456	99.96621723	0	0	3	1.094453284	-2.638385493	345	1	1.1	0.9;
	167	1	826.3817734	83.25015326	0	0	3	1.092667311	-2.162789641	154	1	1.1	0.9;
	168	2	5.584671501	4.201835317	0	0	3	1.1	3.690245777	345	1	1.1	0.9;
	169	1	623.0032328	62.49827955	0	0	3	1.091873841	-3.176067748	154	1	1.1	0.9;
	170	1	1359.327457	136.6529705	0	0	3	1.092889291	-2.767194214	345	1	1.1	0.9;
	171	1	57.27229145	11.63686712	0	0	9	1.080852842	-1.18304122	154	1	1.1	0.9;
	172	2	924.2628431	102.1868875	0	0	9	1.087172647	-0.110064781	154	1	1.1	0.9;
	173	1	140.7403842	19.83108444	0	0	9	1.085437379	-0.499188709	154	1	1.1	0.9;
	174	1	44.13098037	11.72324455	0	0	9	1.080648908	0.388119199	345	1	1.1	0.9;
	175	1	777.076953	77.93184648	0	0	9	1.086065985	-0.283385371	154	1	1.1	0.9;
	176	1	-401.0920239	3.738269099	0	0	9	1.080843871	-1.134192145	345	1	1.1	0.9;
	177	1	35.98150219	8.620395609	0	0	9	1.083893693	-0.733350362	154	1	1.1	0.9;
	178	1	36.86857944	4.806808261	0	0	10	1.076883933	-0.168037431	154	1	1.1	0.9;
	179	1	500.6634235	53.51200254	0	0	9	1.088203689	-0.378725551	345	1	1.1	0.9;
	180	1	35.96045408	5.306493776	0	0	9	1.08318483	-0.10600809	154	1	1.1	0.9;
	181	1	10.18944985	3.7590177	0	0	9	1.087134163	-0.714777178	154	1	1.1	0.9;
	182	1	305.7586848	31.31577064	0	0	9	1.087584891	-0.429471249	154	1	1.1	0.9;
	183	1	74.41501447	32.04135574	0	0	9	1.082955761	-0.773918437	154	1	1.1	0.9;
	184	1	27.61274607	3.66626033	0	0	9	1.087419982	-0.651619982	154	1	1.1	0.9;
	185	4	0	0	0	0	9	0.580012445	0	154	1	1.1	0.10;
	186	4	0	0	0	0	9	0.585298369	0	154	1	1.1	0.11;
	187	1	310.499611	32.43091831	0	0	7	1.084398323	1.939850056	154	1	1.1	0.9;
	188	1	1090.726366	109.3344818	0	0	7	1.089813279	-1.89201715	154	1	1.1	0.9;
	189	1	60.95399022	6.958236858	0	0	7	1.07716862	-2.335149486	154	1	1.1	0.9;
	190	1	63.02163315	7.695708511	0	0	7	1.079338545	-1.585680801	154	1	1.1	0.9;
	191	1	103.2321615	11.2053477	0	0	7	1.087298646	-1.019695917	345	1	1.1	0.9;
	192	1	544.631329	56.45035194	0	0	7	1.085777218	-2.994388178	154	1	1.1	0.9;
	193	1	266.8160462	28.36257455	0	0	7	1.090259583	1.794321019	345	1	1.1	0.9;
	194	1	194.0470594	20.35733773	0	0	7	1.085513799	-3.041892725	154	1	1.1	0.9;
	195	1	496.0881158	50.33746659	0	0	7	1.095573556	-1.084113127	765	1	1.1	0.9;
	196	1	1283.532639	128.6869419	0	0	7	1.094844872	-0.598452886	345	1	1.1	0.9;
	197	1	236.0170853	47.30716881	0	0	7	1.086679662	-2.210461621	154	1	1.1	0.9;
];												
% generator data
%	bus	Pg	Qg	Qmax	Qmin	Vg	mBase	status	Pmax	Pmin	Pc1	Pc2	Qc1min	Qc1max	Qc2min	Qc2max	ramp_agc	ramp_10	ramp_30	ramp_q	apf
mpc.gen = [
	1	799.9999998	35.8816194	400	-400	1	100	1	800	320	0	0	0	0	0	0	0	88	264	0	0;	%	Coal
	1	753.4241595	35.8816194	400	-400	1	100	1	800	320	0	0	0	0	0	0	0	88	264	0	0;	%	Coal
	1	729.9999999	30.0891705	365	-365	1	100	1	730	292	0	0	0	0	0	0	0	80.3	240.9	0	0;	%	Coal
	2	400	100.8556679	200	-200	1	100	1	400	152	0	0	0	0	0	0	0	180	400	0	0;	%	LNG
	5	200	99.99903003	100	-100	1	100	1	200	80	0	0	0	0	0	0	0	22	66	0	0;	%	Coal
	7	690.3334863	-94.4371126	600	-600	1	100	1	1200	480	0	0	0	0	0	0	0	132	396	0	0;	%	Coal
	7	746.9839914	-66.38240907	500	-500	1	100	1	1000	400	0	0	0	0	0	0	0	110	330	0	0;	%	Coal
	8	799.9999999	142.4045791	400	-400	1	100	1	800	304	0	0	0	0	0	0	0	360	800	0	0;	%	LNG
	24	799.9999999	147.7511164	400	-400	1	100	1	800	304	0	0	0	0	0	0	0	360	800	0	0;	%	LNG
	24	699.9999999	117.4348393	350	-350	1	100	1	700	280	0	0	0	0	0	0	0	77	231	0	0;	%	Coal
	24	699.9999999	117.4348393	350	-350	1	100	1	700	280	0	0	0	0	0	0	0	77	231	0	0;	%	Coal
	24	0	0	275	-275	1	100	0	550	209	0	0	0	0	0	0	0	247.5	550	0	0;	%	LNG
	24	0	0	275	-275	1	100	0	550	209	0	0	0	0	0	0	0	247.5	550	0	0;	%	LNG
	24	440	50.75572549	220	-220	1	100	1	440	167.2	0	0	0	0	0	0	0	198	440	0	0;	%	LNG
	25	989.9999999	403.7486545	495	-495	1	100	1	990	376.2	0	0	0	0	0	0	0	445.5	990	0	0;	%	LNG
	26	721.6456891	173.0386691	550	-550	1	100	1	1100	440	0	0	0	0	0	0	0	121	363	0	0;	%	Coal
	26	904.5927306	145.9926592	500	-500	1	100	1	1000	400	0	0	0	0	0	0	0	110	330	0	0;	%	Coal
	26	887.2249298	145.9926592	500	-500	1	100	1	1000	400	0	0	0	0	0	0	0	110	330	0	0;	%	Coal
	26	765.5391033	145.9926592	500	-500	1	100	1	1000	400	0	0	0	0	0	0	0	110	330	0	0;	%	Coal
	26	899.9999998	120.6416607	450	-450	1	100	1	900	360	0	0	0	0	0	0	0	99	297	0	0;	%	Coal
	26	879.9999999	115.7899063	440	-440	1	100	1	880	334.4	0	0	0	0	0	0	0	396	880	0	0;	%	LNG
	28	549.9999999	-16.72109109	275	-275	1	100	1	550	209	0	0	0	0	0	0	0	247.5	550	0	0;	%	LNG
	28	0	0	275	-275	1	100	0	550	209	0	0	0	0	0	0	0	247.5	550	0	0;	%	LNG
	30	849.9999999	176.2033483	425	-425	1	100	1	850	323	0	0	0	0	0	0	0	382.5	850	0	0;	%	LNG
	30	420	50.9321512	210	-210	1	100	1	420	159.6	0	0	0	0	0	0	0	189	420	0	0;	%	LNG
	33	879.9999999	-439.9999983	440	-440	1	100	1	880	334.4	0	0	0	0	0	0	0	396	880	0	0;	%	LNG
	36	0	0	275	-275	1	100	0	550	209	0	0	0	0	0	0	0	247.5	550	0	0;	%	LNG
	37	877.2843373	494.999998	495	-495	1	100	1	990	376.2	0	0	0	0	0	0	0	445.5	990	0	0;	%	LNG
	40	899.9999999	-92.96635519	450	-450	1	100	1	900	342	0	0	0	0	0	0	0	405	900	0	0;	%	LNG
	40	879.9999999	-89.05510611	440	-440	1	100	1	880	334.4	0	0	0	0	0	0	0	396	880	0	0;	%	LNG
	43	879.9999998	-121.666615	440	-440	1	100	1	880	334.4	0	0	0	0	0	0	0	396	880	0	0;	%	LNG
	43	549.9999998	-49.23540557	275	-275	1	100	1	550	209	0	0	0	0	0	0	0	247.5	550	0	0;	%	LNG
	43	475.1520354	-49.23540557	275	-275	1	100	1	550	209	0	0	0	0	0	0	0	247.5	550	0	0;	%	LNG
	43	439.9999999	-31.79398407	220	-220	1	100	1	440	167.2	0	0	0	0	0	0	0	198	440	0	0;	%	LNG
	44	879.9999999	-143.6888194	440	-440	1	100	1	880	334.4	0	0	0	0	0	0	0	396	880	0	0;	%	LNG
	44	879.9999999	-143.6888194	440	-440	1	100	1	880	334.4	0	0	0	0	0	0	0	396	880	0	0;	%	LNG
	44	879.9999999	-143.6888194	440	-440	1	100	1	880	334.4	0	0	0	0	0	0	0	396	880	0	0;	%	LNG
	49	728.1274444	40.43775194	500	-500	1	100	1	1000	400	0	0	0	0	0	0	0	110	330	0	0;	%	Coal
	49	774.9673965	40.43775194	500	-500	1	100	1	1000	400	0	0	0	0	0	0	0	110	330	0	0;	%	Coal
	49	756.8390438	40.43775194	500	-500	1	100	1	1000	400	0	0	0	0	0	0	0	110	330	0	0;	%	Coal
	49	899.9999997	32.79933141	450	-450	1	100	1	900	360	0	0	0	0	0	0	0	99	297	0	0;	%	Coal
	52	786.3222563	-403.1194962	600	-600	1	100	1	1200	480	0	0	0	0	0	0	0	132	396	0	0;	%	Coal
	52	774.0960666	-316.4651	500	-500	1	100	1	1000	400	0	0	0	0	0	0	0	110	330	0	0;	%	Coal
	52	748.2516339	-316.4651	500	-500	1	100	1	1000	400	0	0	0	0	0	0	0	110	330	0	0;	%	Coal
	52	749.1033039	-274.325441	450	-450	1	100	1	900	360	0	0	0	0	0	0	0	99	297	0	0;	%	Coal
	72	0	0	700	-700	1	100	0	1400	1330	0	0	0	0	0	0	0	420	1260	0	0;	%	Nuclear
	72	1000	-125.8406653	500	-500	1	100	1	1000	950	0	0	0	0	0	0	0	300	900	0	0;	%	Nuclear
	72	1000	-125.8406653	500	-500	1	100	1	1000	950	0	0	0	0	0	0	0	300	900	0	0;	%	Nuclear
	72	1000	-125.8406653	500	-500	1	100	1	1000	950	0	0	0	0	0	0	0	300	900	0	0;	%	Nuclear
	72	1000	-125.8406653	500	-500	1	100	1	1000	950	0	0	0	0	0	0	0	300	900	0	0;	%	Nuclear
	72	950	-114.4992881	475	-475	1	100	1	950	902.5	0	0	0	0	0	0	0	285	855	0	0;	%	Nuclear
	72	950	-114.4992881	475	-475	1	100	1	950	902.5	0	0	0	0	0	0	0	285	855	0	0;	%	Nuclear
	78	110	48.87623932	55	-55	1	100	1	110	41.8	0	0	0	0	0	0	0	49.5	110	0	0;	%	LNG
	79	879.9999999	-57.41402506	440	-440	1	100	1	880	334.4	0	0	0	0	0	0	0	396	880	0	0;	%	LNG
	79	879.9999999	-57.41402506	440	-440	1	100	1	880	334.4	0	0	0	0	0	0	0	396	880	0	0;	%	LNG
	79	879.9999999	-57.41402506	440	-440	1	100	1	880	334.4	0	0	0	0	0	0	0	396	880	0	0;	%	LNG
	88	499.9999999	-31.58075571	250	-250	1	100	1	500	200	0	0	0	0	0	0	0	55	165	0	0;	%	Coal
	90	699.9999999	322.663098	350	-350	1	100	1	700	280	0	0	0	0	0	0	0	77	231	0	0;	%	Coal
	91	1000	-141.8670188	500	-500	1	100	1	1000	950	0	0	0	0	0	0	0	300	900	0	0;	%	Nuclear
	91	1000	-141.8670188	500	-500	1	100	1	1000	950	0	0	0	0	0	0	0	300	900	0	0;	%	Nuclear
	91	0	0	500	-500	1	100	0	1000	950	0	0	0	0	0	0	0	300	900	0	0;	%	Nuclear
	91	0	0	500	-500	1	100	0	1000	950	0	0	0	0	0	0	0	300	900	0	0;	%	Nuclear
	91	950	-129.0061178	475	-475	1	100	1	950	902.5	0	0	0	0	0	0	0	285	855	0	0;	%	Nuclear
	91	950	-129.0061178	475	-475	1	100	1	950	902.5	0	0	0	0	0	0	0	285	855	0	0;	%	Nuclear
	108	0	0	500	-500	1	100	0	1000	950	0	0	0	0	0	0	0	300	900	0	0;	%	Nuclear
	108	1000	46.21785654	500	-500	1	100	1	1000	950	0	0	0	0	0	0	0	300	900	0	0;	%	Nuclear
	108	700	22.69174468	350	-350	1	100	1	700	665	0	0	0	0	0	0	0	210	630	0	0;	%	Nuclear
	108	700	22.69174468	350	-350	1	100	1	700	665	0	0	0	0	0	0	0	210	630	0	0;	%	Nuclear
	108	0	0	350	-350	1	100	0	700	665	0	0	0	0	0	0	0	210	630	0	0;	%	Nuclear
	113	400	64.19015632	200	-200	1	100	1	400	152	0	0	0	0	0	0	0	180	400	0	0;	%	LNG
	126	888.0572971	50.8561843	500	-500	1	100	1	1000	400	0	0	0	0	0	0	0	110	330	0	0;	%	Coal
	126	911.6328385	50.8561843	500	-500	1	100	1	1000	400	0	0	0	0	0	0	0	110	330	0	0;	%	Coal
	126	873.3243515	50.8561843	500	-500	1	100	1	1000	400	0	0	0	0	0	0	0	110	330	0	0;	%	Coal
	126	743.0847563	50.8561843	500	-500	1	100	1	1000	400	0	0	0	0	0	0	0	110	330	0	0;	%	Coal
	126	853.8995271	50.8561843	500	-500	1	100	1	1000	400	0	0	0	0	0	0	0	110	330	0	0;	%	Coal
	126	720.3311932	41.35408012	450	-450	1	100	1	900	360	0	0	0	0	0	0	0	99	297	0	0;	%	Coal
	126	879.9999999	39.56518499	440	-440	1	100	1	880	334.4	0	0	0	0	0	0	0	396	880	0	0;	%	LNG
	126	879.9999999	39.56518499	440	-440	1	100	1	880	334.4	0	0	0	0	0	0	0	396	880	0	0;	%	LNG
	126	770	30.40208481	385	-385	1	100	1	770	292.6	0	0	0	0	0	0	0	346.5	770	0	0;	%	LNG
	129	823.0742232	-11.27172856	550	-550	1	100	1	1100	440	0	0	0	0	0	0	0	121	363	0	0;	%	Coal
	129	860.1873855	-9.281774331	500	-500	1	100	1	1000	400	0	0	0	0	0	0	0	110	330	0	0;	%	Coal
	129	783.8672509	-9.281774331	500	-500	1	100	1	1000	400	0	0	0	0	0	0	0	110	330	0	0;	%	Coal
	129	778.0606285	-9.281774331	500	-500	1	100	1	1000	400	0	0	0	0	0	0	0	110	330	0	0;	%	Coal
	129	781.9464788	-7.496023819	450	-450	1	100	1	900	360	0	0	0	0	0	0	0	99	297	0	0;	%	Coal
	129	769.9999999	-5.471919388	385	-385	1	100	1	770	292.6	0	0	0	0	0	0	0	346.5	770	0	0;	%	LNG
	129	769.9999999	-5.471919388	385	-385	1	100	1	770	292.6	0	0	0	0	0	0	0	346.5	770	0	0;	%	LNG
	132	440	219.9999699	220	-220	1	100	1	440	167.2	0	0	0	0	0	0	0	198	440	0	0;	%	LNG
	133	899.9999959	-123.5168083	450	-450	1	100	1	900	360	0	0	0	0	0	0	0	99	297	0	0;	%	Coal
	134	0	0	275	-275	1	100	0	550	209	0	0	0	0	0	0	0	247.5	550	0	0;	%	LNG
	139	738.1323394	-55.24209969	550	-550	1	100	1	1100	440	0	0	0	0	0	0	0	121	363	0	0;	%	Coal
	139	890.588646	-45.87122175	500	-500	1	100	1	1000	400	0	0	0	0	0	0	0	110	330	0	0;	%	Coal
	139	806.9759709	-45.87122175	500	-500	1	100	1	1000	400	0	0	0	0	0	0	0	110	330	0	0;	%	Coal
	139	761.4351056	-45.87122175	500	-500	1	100	1	1000	400	0	0	0	0	0	0	0	110	330	0	0;	%	Coal
	139	907.5277127	-45.87122175	500	-500	1	100	1	1000	400	0	0	0	0	0	0	0	110	330	0	0;	%	Coal
	139	716.3690459	-37.31723896	450	-450	1	100	1	900	360	0	0	0	0	0	0	0	99	297	0	0;	%	Coal
	141	1000	-53.22989806	500	-500	1	100	1	1000	950	0	0	0	0	0	0	0	300	900	0	0;	%	Nuclear
	141	1000	-53.22989806	500	-500	1	100	1	1000	950	0	0	0	0	0	0	0	300	900	0	0;	%	Nuclear
	141	950	-48.13043203	475	-475	1	100	1	950	902.5	0	0	0	0	0	0	0	285	855	0	0;	%	Nuclear
	141	950	-48.13043203	475	-475	1	100	1	950	902.5	0	0	0	0	0	0	0	285	855	0	0;	%	Nuclear
	141	650	-22.77924976	325	-325	1	100	1	650	617.5	0	0	0	0	0	0	0	195	585	0	0;	%	Nuclear
	145	440	9.017526776	220	-220	1	100	1	440	167.2	0	0	0	0	0	0	0	198	440	0	0;	%	LNG
	147	989.9999998	73.68381018	495	-495	1	100	1	990	376.2	0	0	0	0	0	0	0	445.5	990	0	0;	%	LNG
	147	989.9999999	73.68381018	495	-495	1	100	1	990	376.2	0	0	0	0	0	0	0	445.5	990	0	0;	%	LNG
	149	1400	77.6234372	700	-700	1	100	1	1400	1330	0	0	0	0	0	0	0	420	1260	0	0;	%	Nuclear
	149	1400	77.6234372	700	-700	1	100	1	1400	1330	0	0	0	0	0	0	0	420	1260	0	0;	%	Nuclear
	152	769.9999999	133.4697917	385	-385	1	100	1	770	292.6	0	0	0	0	0	0	0	346.5	770	0	0;	%	LNG
	152	0	0	275	-275	1	100	0	550	209	0	0	0	0	0	0	0	247.5	550	0	0;	%	LNG
	152	0	0	275	-275	1	100	0	550	209	0	0	0	0	0	0	0	247.5	550	0	0;	%	LNG
	152	440	50.42411229	220	-220	1	100	1	440	167.2	0	0	0	0	0	0	0	198	440	0	0;	%	LNG
	158	769.9999999	318.020323	385	-385	1	100	1	770	292.6	0	0	0	0	0	0	0	346.5	770	0	0;	%	LNG
	163	879.9999999	17.23271018	440	-440	1	100	1	880	334.4	0	0	0	0	0	0	0	396	880	0	0;	%	LNG
	163	769.9999999	16.57400683	385	-385	1	100	1	770	292.6	0	0	0	0	0	0	0	346.5	770	0	0;	%	LNG
	165	209.0000016	-274.9999965	275	-275	1	100	1	550	209	0	0	0	0	0	0	0	247.5	550	0	0;	%	LNG
	166	0	0	495	-495	1	100	0	990	376.2	0	0	0	0	0	0	0	445.5	990	0	0;	%	LNG
	166	989.9999996	256.4331191	495	-495	1	100	1	990	376.2	0	0	0	0	0	0	0	445.5	990	0	0;	%	LNG
	166	0	0	495	-495	1	100	0	990	376.2	0	0	0	0	0	0	0	445.5	990	0	0;	%	LNG
	166	0	0	495	-495	1	100	0	990	376.2	0	0	0	0	0	0	0	445.5	990	0	0;	%	LNG
	168	879.9999999	-11.9916948	440	-440	1	100	1	880	334.4	0	0	0	0	0	0	0	396	880	0	0;	%	LNG
	168	778.6871423	-11.9916948	440	-440	1	100	1	880	334.4	0	0	0	0	0	0	0	396	880	0	0;	%	LNG
	168	879.9999999	-11.9916948	440	-440	1	100	1	880	334.4	0	0	0	0	0	0	0	396	880	0	0;	%	LNG
	168	724.4798292	-11.9916948	440	-440	1	100	1	880	334.4	0	0	0	0	0	0	0	396	880	0	0;	%	LNG
	172	769.9999999	128.795636	385	-385	1	100	1	770	292.6	0	0	0	0	0	0	0	346.5	770	0	0;	%	LNG
];

% branch data
%	fbus	tbus	r	x	b	rateA	rateB	rateC	ratio	angle	status	angmin	angmax
mpc.branch = [
	1	3	0.002574042	0.023444654	0.076093373	904	904	904	0	0	1	-360	360;	%	154	line	2
	1	3	0.000429713	0.004602092	0.387646086	2172	2172	2172	0	0	1	-360	360;	%	345	line	2
	1	7	0.000542799	0.0058132	0.489660838	2172	2172	2172	0	0	1	-360	360;	%	345	line	2
	1	7	0.003251439	0.029614458	0.09611846	904	904	904	0	0	1	-360	360;	%	154	line	2
	1	14	0.003353143	0.030540789	0.223031284	1356	1356	1356	0	0	1	-360	360;	%	154	line	3
	2	15	0.001924592	0.017529395	0.056894456	904	904	904	0	0	1	-360	360;	%	154	line	2
	2	16	0.001986687	0.018094956	0.058730073	904	904	904	0	0	1	-360	360;	%	154	line	2
	2	35	0.001710666	0.015580931	0.050570403	904	904	904	0	0	1	-360	360;	%	154	line	2
	3	4	0.000154736	0.001657168	0.139587555	2172	2172	2172	0	0	1	-360	360;	%	345	line	2
	3	4	0.000926887	0.00844219	0.027400478	904	904	904	0	0	1	-360	360;	%	154	line	2
	3	8	0.003548914	0.032323891	0.236052803	1356	1356	1356	0	0	1	-360	360;	%	154	line	3
	3	11	0.003400257	0.030969904	0.100517777	904	904	904	0	0	1	-360	360;	%	154	line	2
	3	13	0.002191825	0.019963377	0.145787247	1356	1356	1356	0	0	1	-360	360;	%	154	line	3
	3	193	0.000590297	0.006321892	2.130037237	4344	4344	4344	0	0	1	-360	360;	%	345	line	4
	4	72	0.000690812	0.007398375	0.623184303	2172	2172	2172	0	0	1	-360	360;	%	345	line	2
	5	7	0.001222283	0.011132689	0.036132921	904	904	904	0	0	1	-360	360;	%	154	line	2
	5	10	0.003164497	0.028822584	0.093548306	904	904	904	0	0	1	-360	360;	%	154	line	2
	6	10	0.001285688	0.011710181	0.038007266	904	904	904	0	0	1	-360	360;	%	154	line	2
	6	16	0.001903714	0.01733923	0.056277244	904	904	904	0	0	1	-360	360;	%	154	line	2
	7	10	0.00309092	0.02815243	0.091373212	904	904	904	0	0	1	-360	360;	%	154	line	2
	8	11	0.00216439	0.019713499	0.063983315	904	904	904	0	0	1	-360	360;	%	154	line	2
	8	13	0.001409171	0.012834882	0.260360388	2260	2260	2260	0	0	1	-360	360;	%	154	line	5
	8	187	0.001772751	0.016146406	0.052405742	904	904	904	0	0	1	-360	360;	%	154	line	2
	8	193	0.001905365	0.017354266	0.056326045	904	904	904	0	0	1	-360	360;	%	154	line	2
	9	17	0.001050785	0.009570661	0.03106311	904	904	904	0	0	1	-360	360;	%	154	line	2
	9	29	0.002217352	0.020195883	0.065548969	904	904	904	0	0	1	-360	360;	%	154	line	2
	9	193	0.002745828	0.0250093	0.081171682	904	904	904	0	0	1	-360	360;	%	154	line	2
	10	15	0.003845431	0.035024597	0.113677932	904	904	904	0	0	1	-360	360;	%	154	line	2
	12	16	0.002789894	0.025410654	0.082474341	904	904	904	0	0	1	-360	360;	%	154	line	2
	12	42	0.001302444	0.011862805	0.086630917	1356	1356	1356	0	0	1	-360	360;	%	154	line	3
	12	44	0.002346024	0.021367842	0.069352749	904	904	904	0	0	1	-360	360;	%	154	line	2
	13	41	0.000122152	0.003924627	7.991861103	14580	14580	14580	0	0	1	-360	360;	%	765	line	2
	13	72	0.00318767	0.029033644	0.094233334	904	904	904	0	0	1	-360	360;	%	154	line	2
	13	72	3.61E-05	0.00115912	2.360357593	14580	14580	14580	0	0	1	-360	360;	%	765	line	2
	13	72	0.000532153	0.005699188	0.48005735	2172	2172	2172	0	0	1	-360	360;	%	345	line	2
	14	17	0.003080612	0.028058549	0.091068507	904	904	904	0	0	1	-360	360;	%	154	line	2
	14	193	0.002422622	0.022065501	0.071617111	904	904	904	0	0	1	-360	360;	%	154	line	2
	15	17	0.001850173	0.016851572	0.054694473	904	904	904	0	0	1	-360	360;	%	154	line	2
	16	35	0.002753227	0.025076687	0.081390398	904	904	904	0	0	1	-360	360;	%	154	line	2
	18	22	0.000449352	0.004092749	0.013283673	904	904	904	0	0	1	-360	360;	%	154	line	2
	18	23	0.000101703	0.001089201	0.091746248	2172	2172	2172	0	0	1	-360	360;	%	345	line	2
	18	25	0.001604892	0.014617531	0.047443535	904	904	904	0	0	1	-360	360;	%	154	line	2
	18	25	0.000267922	0.002869363	0.241693853	2172	2172	2172	0	0	1	-360	360;	%	345	line	2
	18	28	0.000180694	0.001935178	0.163005055	2172	2172	2172	0	0	1	-360	360;	%	345	line	2
	19	22	0.000169008	0.001810019	0.609850456	4344	4344	4344	0	0	1	-360	360;	%	345	line	4
	19	26	0.000153619	0.001645207	0.31180513	3258	3258	3258	0	0	1	-360	360;	%	345	line	3
	19	104	3.03E-05	3.48397E-05	0.382454799	2124	2124	2124	0	0	1	-360	360;	%	154	cable	6
	19	104	0.000111229	0.001013083	0.013152484	1808	1808	1808	0	0	1	-360	360;	%	154	line	4
	19	105	1.35E-05	3.10E-05	1.510135739	2859	2859	2859	0	0	1	-360	360;	%	345	cable	3
	19	165	0.000607908	0.005536893	0.01797087	904	904	904	0	0	1	-360	360;	%	154	line	2
	19	165	0.000124046	0.000142809	0.696755154	1416	1416	1416	0	0	1	-360	360;	%	154	cable	4
	20	21	0.001525585	0.013895192	0.045099066	904	904	904	0	0	1	-360	360;	%	154	line	2
	20	23	0.001083069	0.00986471	0.072039363	1356	1356	1356	0	0	1	-360	360;	%	154	line	3
	20	25	0.000952048	0.00867136	0.028144286	904	904	904	0	0	1	-360	360;	%	154	line	2
	20	29	0.00023234	0.002488283	0.838378092	4344	4344	4344	0	0	1	-360	360;	%	345	line	4
	20	31	0.001675214	0.015258027	0.049522367	904	904	904	0	0	1	-360	360;	%	154	line	2
	20	41	0.001685665	0.015353221	0.049831335	904	904	904	0	0	1	-360	360;	%	154	line	2
	20	101	0.000889478	0.008101461	0.059162823	1356	1356	1356	0	0	1	-360	360;	%	154	line	3
	20	101	0.00014849	0.001590284	0.301395979	3258	3258	3258	0	0	1	-360	360;	%	345	line	3
	21	23	0.000111099	0.001189836	0.100222927	2172	2172	2172	0	0	1	-360	360;	%	345	line	2
	21	23	0.000665499	0.006061436	0.019673359	904	904	904	0	0	1	-360	360;	%	154	line	2
	21	27	0.000334595	0.003583402	0.301839232	2172	2172	2172	0	0	1	-360	360;	%	345	line	2
	21	27	0.002004269	0.018255096	0.059249832	904	904	904	0	0	1	-360	360;	%	154	line	2
	21	30	0.001260894	0.011484355	0.037274311	904	904	904	0	0	1	-360	360;	%	154	line	2
	21	31	0.00172419	0.015704108	0.050970194	904	904	904	0	0	1	-360	360;	%	154	line	2
	22	26	0.000124556	0.001333955	0.25281552	3258	3258	3258	0	0	1	-360	360;	%	345	line	3
	22	26	0.000746108	0.006795629	0.049626674	1356	1356	1356	0	0	1	-360	360;	%	154	line	3
	22	28	5.33E-05	0.00012249	2.655319668	1906	1906	1906	0	0	1	-360	360;	%	345	cable	2
	22	28	0.001099078	0.010010521	0.032490746	904	904	904	0	0	1	-360	360;	%	154	line	2
	22	30	0.001280818	0.011665829	0.037863315	904	904	904	0	0	1	-360	360;	%	154	line	2
	23	25	0.000179919	0.001926875	0.365187736	3258	3258	3258	0	0	1	-360	360;	%	345	line	3
	23	101	0.000192408	0.002060622	0.694286226	4344	4344	4344	0	0	1	-360	360;	%	345	line	4
	24	30	0.001480551	0.013485018	0.043767781	904	904	904	0	0	1	-360	360;	%	154	line	2
	24	32	0.001348683	0.012283953	0.039869533	904	904	904	0	0	1	-360	360;	%	154	line	2
	24	34	0.000318309	0.003408984	0.287147508	2172	2172	2172	0	0	1	-360	360;	%	345	line	2
	24	34	0.001906713	0.017366547	0.056365905	904	904	904	0	0	1	-360	360;	%	154	line	2
	24	126	0.002230934	0.020319589	0.065950477	904	904	904	0	0	1	-360	360;	%	154	line	2
	24	126	0.000372435	0.003988654	0.335974647	2172	2172	2172	0	0	1	-360	360;	%	345	line	2
	24	135	0.000350658	0.003755429	0.316329506	2172	2172	2172	0	0	1	-360	360;	%	345	line	2
	25	100	0.000509459	0.004640205	0.033886189	1356	1356	1356	0	0	1	-360	360;	%	154	line	3
	25	101	0.000281014	0.000323519	0.394607608	708	708	708	0	0	1	-360	360;	%	154	cable	2
	25	103	0.000535825	0.00488035	0.063359825	1808	1808	1808	0	0	1	-360	360;	%	154	line	4
	26	34	0.000118285	0.001266796	0.240087329	3258	3258	3258	0	0	1	-360	360;	%	345	line	3
	26	163	0.000158493	0.001697407	0.321698224	3258	3258	3258	0	0	1	-360	360;	%	345	line	3
	26	167	0.001104834	0.01006295	0.032660912	904	904	904	0	0	1	-360	360;	%	154	line	2
	27	32	0.00109879	0.010007902	0.032482246	904	904	904	0	0	1	-360	360;	%	154	line	2
	27	41	4.99E-05	0.001604545	3.267393077	14580	14580	14580	0	0	1	-360	360;	%	765	line	2
	27	195	2.02E-05	0.000650211	1.324049195	14580	14580	14580	0	0	1	-360	360;	%	765	line	2
	27	195	0.000298513	0.003196975	0.269289513	2172	2172	2172	0	0	1	-360	360;	%	345	line	2
	27	195	0.001788132	0.016286504	0.052860452	904	904	904	0	0	1	-360	360;	%	154	line	2
	29	31	0.001299581	0.011836722	0.038417974	904	904	904	0	0	1	-360	360;	%	154	line	2
	29	41	0.002015591	0.018358223	0.059584548	904	904	904	0	0	1	-360	360;	%	154	line	2
	29	192	0.003101751	0.028251087	0.091693421	904	904	904	0	0	1	-360	360;	%	154	line	2
	29	193	0.00034772	0.003723971	1.254718731	4344	4344	4344	0	0	1	-360	360;	%	345	line	4
	29	197	0.000368743	0.003949121	0.748450497	3258	3258	3258	0	0	1	-360	360;	%	345	line	3
	30	32	0.001270961	0.011576049	0.037571917	904	904	904	0	0	1	-360	360;	%	154	line	2
	31	197	0.002089399	0.019030469	0.247065728	1808	1808	1808	0	0	1	-360	360;	%	154	line	4
	32	135	0.001262513	0.011499105	0.083974915	1356	1356	1356	0	0	1	-360	360;	%	154	line	3
	32	137	0.001436718	0.01308578	0.042471992	904	904	904	0	0	1	-360	360;	%	154	line	2
	33	35	0.002155816	0.019635403	0.143392142	1356	1356	1356	0	0	1	-360	360;	%	154	line	3
	33	39	0.000640865	0.005837068	0.018945138	904	904	904	0	0	1	-360	360;	%	154	line	2
	33	39	3.11E-05	7.14E-05	1.548299242	1906	1906	1906	0	0	1	-360	360;	%	345	cable	2
	33	101	0.000644357	0.005868869	0.019048354	904	904	904	0	0	1	-360	360;	%	154	line	2
	33	101	0.00010757	0.001152036	0.097038936	2172	2172	2172	0	0	1	-360	360;	%	345	line	2
	34	135	0.000331995	0.003555561	1.197976512	4344	4344	4344	0	0	1	-360	360;	%	345	line	4
	35	39	0.001549065	0.014109052	0.183172744	1808	1808	1808	0	0	1	-360	360;	%	154	line	4
	35	41	0.000502303	0.0053795	0.453129223	2172	2172	2172	0	0	1	-360	360;	%	345	line	2
	35	44	0.000370319	0.003965999	0.334066318	2172	2172	2172	0	0	1	-360	360;	%	345	line	2
	36	39	0.000152922	0.00163775	0.310391831	3258	3258	3258	0	0	1	-360	360;	%	345	line	3
	36	40	0.001330617	0.012119404	0.039335464	904	904	904	0	0	1	-360	360;	%	154	line	2
	36	44	0.001539844	0.014025061	0.04552058	904	904	904	0	0	1	-360	360;	%	154	line	2
	36	156	0.000740338	0.006743076	0.021885732	904	904	904	0	0	1	-360	360;	%	154	line	2
	36	159	0.000255269	0.002733843	0.230278713	2172	2172	2172	0	0	1	-360	360;	%	345	line	2
	36	159	0.000764547	0.006963574	0.090405577	1808	1808	1808	0	0	1	-360	360;	%	154	line	4
	37	43	0.000160584	0.000184873	0.901984698	1416	1416	1416	0	0	1	-360	360;	%	154	cable	4
	37	102	0.000324618	0.000373719	1.025634288	1062	1062	1062	0	0	1	-360	360;	%	154	cable	3
	37	159	0.00105221	0.00958364	0.031105236	904	904	904	0	0	1	-360	360;	%	154	line	2
	38	39	2.46E-05	2.83E-05	0.699701382	3186	3186	3186	0	0	1	-360	360;	%	154	cable	9
	38	156	8.51E-05	9.80E-05	1.464152725	2478	2478	2478	0	0	1	-360	360;	%	154	cable	7
	39	41	0.000257868	0.002761678	0.523402423	3258	3258	3258	0	0	1	-360	360;	%	345	line	3
	39	157	0.000441033	0.004016976	0.029334907	1356	1356	1356	0	0	1	-360	360;	%	154	line	3
	40	42	0.001097043	0.009991982	0.032430577	904	904	904	0	0	1	-360	360;	%	154	line	2
	40	43	0.000275345	0.002948859	0.558877641	3258	3258	3258	0	0	1	-360	360;	%	345	line	3
	40	44	0.000157872	0.001690763	0.142417378	2172	2172	2172	0	0	1	-360	360;	%	345	line	2
	40	44	0.000945678	0.008613336	0.027955961	904	904	904	0	0	1	-360	360;	%	154	line	2
	41	44	0.000334389	0.003581194	1.206612883	4344	4344	4344	0	0	1	-360	360;	%	345	line	4
	42	44	0.001377892	0.012549987	0.040732991	904	904	904	0	0	1	-360	360;	%	154	line	2
	42	44	0.000230027	0.002463512	0.207508012	2172	2172	2172	0	0	1	-360	360;	%	345	line	2
	42	161	0.004587512	0.041783555	0.135615211	904	904	904	0	0	1	-360	360;	%	154	line	2
	43	159	0.000179521	0.001922617	0.364380693	3258	3258	3258	0	0	1	-360	360;	%	345	line	3
	43	159	0.001075358	0.009794477	0.07152647	1356	1356	1356	0	0	1	-360	360;	%	154	line	3
	43	161	0.001796592	0.016363559	0.053110546	904	904	904	0	0	1	-360	360;	%	154	line	2
	43	162	0.000158062	0.001692798	0.142588761	2172	2172	2172	0	0	1	-360	360;	%	345	line	2
	45	48	0.001469039	0.013380163	0.097711783	1356	1356	1356	0	0	1	-360	360;	%	154	line	3
	45	58	0.001436903	0.013087464	0.042477457	904	904	904	0	0	1	-360	360;	%	154	line	2
	46	61	0.001954257	0.017799587	0.057771407	904	904	904	0	0	1	-360	360;	%	154	line	2
	46	62	0.001969232	0.017935982	0.058214098	904	904	904	0	0	1	-360	360;	%	154	line	2
	47	50	0.000180903	0.001937417	0.163193659	2172	2172	2172	0	0	1	-360	360;	%	345	line	2
	47	50	0.001083636	0.009869876	0.032034261	904	904	904	0	0	1	-360	360;	%	154	line	2
	47	51	0.002160034	0.019673822	0.063854536	904	904	904	0	0	1	-360	360;	%	154	line	2
	47	56	0.000103553	0.001109023	0.093415856	2172	2172	2172	0	0	1	-360	360;	%	345	line	2
	47	56	0.000620299	0.005649747	0.018337158	904	904	904	0	0	1	-360	360;	%	154	line	2
	47	142	0.001420168	0.012935046	0.04198276	904	904	904	0	0	1	-360	360;	%	154	line	2
	47	142	0.000237084	0.002539098	0.213874767	2172	2172	2172	0	0	1	-360	360;	%	345	line	2
	47	147	0.000184068	0.001971309	0.664193707	4344	4344	4344	0	0	1	-360	360;	%	345	line	4
	47	148	0.000220648	0.00236307	0.447856879	3258	3258	3258	0	0	1	-360	360;	%	345	line	3
	48	50	0.001799924	0.016393904	0.11972033	1356	1356	1356	0	0	1	-360	360;	%	154	line	3
	48	52	0.001777646	0.016190991	0.05255045	904	904	904	0	0	1	-360	360;	%	154	line	2
	48	58	0.00101682	0.009261308	0.030059057	904	904	904	0	0	1	-360	360;	%	154	line	2
	49	55	0.00036476	0.003906464	0.740365993	3258	3258	3258	0	0	1	-360	360;	%	345	line	3
	49	59	0.002127127	0.019374105	0.062881756	904	904	904	0	0	1	-360	360;	%	154	line	2
	49	79	0.00018223	0.001951628	0.369879116	3258	3258	3258	0	0	1	-360	360;	%	345	line	3
	50	52	0.000277424	0.002971122	1.564157853	5430	5430	5430	0	0	1	-360	360;	%	345	line	5
	50	54	0.000236363	0.002531371	0.479753905	3258	3258	3258	0	0	1	-360	360;	%	345	line	3
	50	57	0.002647882	0.024117193	0.078276207	904	904	904	0	0	1	-360	360;	%	154	line	2
	50	60	0.001043397	0.00950337	0.030844709	904	904	904	0	0	1	-360	360;	%	154	line	2
	51	57	0.001948455	0.017746737	0.057599872	904	904	904	0	0	1	-360	360;	%	154	line	2
	51	120	0.001446252	0.013172619	0.042753841	904	904	904	0	0	1	-360	360;	%	154	line	2
	51	150	0.002251564	0.020507492	0.066560346	904	904	904	0	0	1	-360	360;	%	154	line	2
	52	55	0.002176504	0.019823836	0.064341431	904	904	904	0	0	1	-360	360;	%	154	line	2
	52	56	0.000306564	0.003283206	1.728455793	5430	5430	5430	0	0	1	-360	360;	%	345	line	5
	52	58	0.00161948	0.014750402	0.107718273	1356	1356	1356	0	0	1	-360	360;	%	154	line	3
	53	55	0.000297054	0.003181349	0.602939864	3258	3258	3258	0	0	1	-360	360;	%	345	line	3
	54	55	0.001534098	0.013972729	0.045350725	904	904	904	0	0	1	-360	360;	%	154	line	2
	54	55	0.000256104	0.002742791	0.231032354	2172	2172	2172	0	0	1	-360	360;	%	345	line	2
	54	61	0.002073318	0.018884005	0.245164235	1808	1808	1808	0	0	1	-360	360;	%	154	line	4
	54	111	0.000301432	0.003228244	1.699520735	5430	5430	5430	0	0	1	-360	360;	%	345	line	5
	54	174	0.000519399	0.005562598	1.874208042	4344	4344	4344	0	0	1	-360	360;	%	345	line	4
	55	59	0.00285794	0.026030423	0.084485901	904	904	904	0	0	1	-360	360;	%	154	line	2
	55	60	0.001417869	0.012914104	0.09430828	1356	1356	1356	0	0	1	-360	360;	%	154	line	3
	56	142	0.001709968	0.015574573	0.050549766	904	904	904	0	0	1	-360	360;	%	154	line	2
	57	109	0.000258977	0.002773558	0.525653922	3258	3258	3258	0	0	1	-360	360;	%	345	line	3
	57	111	0.00231117	0.021050388	0.068322402	904	904	904	0	0	1	-360	360;	%	154	line	2
	57	111	0.00025722	0.002754738	0.522087084	3258	3258	3258	0	0	1	-360	360;	%	345	line	3
	57	150	4.73E-05	0.001520409	3.096064563	14580	14580	14580	0	0	1	-360	360;	%	765	line	2
	59	79	0.001148042	0.010456488	0.033938205	904	904	904	0	0	1	-360	360;	%	154	line	2
	62	109	0.001508546	0.013739996	0.044595354	904	904	904	0	0	1	-360	360;	%	154	line	2
	63	70	0.002477336	0.022563841	0.073234553	904	904	904	0	0	1	-360	360;	%	154	line	2
	63	71	0.002118269	0.019293421	0.062619884	904	904	904	0	0	1	-360	360;	%	154	line	2
	63	71	0.000353626	0.003787221	0.319007448	2172	2172	2172	0	0	1	-360	360;	%	345	line	2
	63	74	0.002453205	0.022344057	0.072521209	904	904	904	0	0	1	-360	360;	%	154	line	2
	64	65	0.001841136	0.016769264	0.054427328	904	904	904	0	0	1	-360	360;	%	154	line	2
	64	68	0.002966654	0.027020609	0.087699707	904	904	904	0	0	1	-360	360;	%	154	line	2
	64	110	0.00161906	0.014746578	0.047862377	904	904	904	0	0	1	-360	360;	%	154	line	2
	64	112	0.001294642	0.011791744	0.153087961	1808	1808	1808	0	0	1	-360	360;	%	154	line	4
	64	121	0.001212896	0.011047187	0.035855412	904	904	904	0	0	1	-360	360;	%	154	line	2
	64	121	0.000134988	0.001445679	0.273989895	3258	3258	3258	0	0	1	-360	360;	%	345	line	3
	65	73	0.001216475	0.011079788	0.035961223	904	904	904	0	0	1	-360	360;	%	154	line	2
	66	68	0.001483845	0.013515018	0.043865152	904	904	904	0	0	1	-360	360;	%	154	line	2
	66	70	0.002429312	0.022126439	0.161583518	1356	1356	1356	0	0	1	-360	360;	%	154	line	3
	66	187	0.003668123	0.033409661	0.108436396	904	904	904	0	0	1	-360	360;	%	154	line	2
	67	70	0.000987046	0.00899012	0.029178874	904	904	904	0	0	1	-360	360;	%	154	line	2
	67	70	0.000164779	0.001764725	0.148647322	2172	2172	2172	0	0	1	-360	360;	%	345	line	2
	67	72	0.00231387	0.021074982	0.273608897	1808	1808	1808	0	0	1	-360	360;	%	154	line	4
	67	72	0.00038628	0.004136935	1.393858801	4344	4344	4344	0	0	1	-360	360;	%	345	line	4
	68	191	0.002797165	0.025476879	0.186050893	1356	1356	1356	0	0	1	-360	360;	%	154	line	3
	69	74	0.001978682	0.018022046	0.058493431	904	904	904	0	0	1	-360	360;	%	154	line	2
	69	117	0.001889173	0.017206788	0.125656613	1356	1356	1356	0	0	1	-360	360;	%	154	line	3
	70	71	0.000301405	0.003227955	0.271898989	2172	2172	2172	0	0	1	-360	360;	%	345	line	2
	70	114	0.000532508	0.005702985	3.002357476	5430	5430	5430	0	0	1	-360	360;	%	345	line	5
...
];

% area data
%	area	refbus
mpc.areas = [
	1	1;
];

% generator cost data, 1000won/h = 1$/h
%	2	startup	shutdown	n	c(n-1)	...	c0
mpc.gencost = [
    2	10084.8	0	3	0.02665058	23.85120778	1553.769721	;	%	Coal
    2	10084.8	0	3	0.02873618	25.71773146	1675.363059	;	%	Coal
    2	9202.38	0	3	0.02700896	24.26856934	1437.227878	;	%	Coal
    2	21544.8	0	3	0.002190581	47.25055464	2451.396366	;	%	LNG
    2	2521.2	0	3	0.02920346	26.3880225	1227.02187	;	%	Coal
    2	15127.2	0	3	0.03011184	26.607723	2629.633684	;	%	Coal
    2	12606	0	3	0.02856854	25.50166189	2080.515305	;	%	Coal
    2	43089.6	0	3	0.004506906	51.60472841	5354.588731	;	%	LNG
    2	43089.6	0	3	0.005144581	49.97505786	5185.491522	;	%	LNG
    2	8824.2	0	3	0.02869702	25.78819927	1464.460476	;	%	Coal
    2	8824.2	0	3	0.02607132	23.42872105	1330.470408	;	%	Coal
    2	29624.1	0	3	0.003443606	63.83534042	3311.828247	;	%	LNG
    2	29624.1	0	3	0.003731847	69.17856401	3589.038938	;	%	LNG
    2	23699.28	0	3	0.0021215	50.30180805	2609.697821	;	%	LNG
    2	53323.38	0	3	0.006185094	58.36003722	6055.530322	;	%	LNG
    2	13866.6	0	3	0.03056746	27.1737834	2447.834897	;	%	Coal
    2	12606	0	3	0.02638636	23.55371598	1921.595023	;	%	Coal
    2	12606	0	3	0.02673	23.86049012	1946.622737	;	%	Coal
    2	12606	0	3	0.029414	26.2564005	2142.089536	;	%	Coal
    2	11345.4	0	3	0.0256102	22.91199596	1679.158626	;	%	Coal
    2	47398.56	0	3	0.004658845	50.8740774	5278.77522	;	%	LNG
    2	29624.1	0	3	0.003344804	62.00381461	3216.807231	;	%	LNG
    2	29624.1	0	3	0.003618647	67.08013383	3480.17071	;	%	LNG
    2	45782.7	0	3	0.00463853	47.8568101	4965.698763	;	%	LNG
    2	22622.04	0	3	0.002143461	48.52912753	2517.729745	;	%	LNG
    2	47398.56	0	3	0.004480435	48.92585766	5076.62484	;	%	LNG
    2	29624.1	0	3	0.003450077	63.95530101	3318.051898	;	%	LNG
    2	53323.38	0	3	0.006070672	57.28039586	5943.505016	;	%	LNG
    2	48475.8	0	3	0.004740136	51.76176213	5370.8828	;	%	LNG
    2	47398.56	0	3	0.004595392	50.18117602	5206.87867	;	%	LNG
    2	47398.56	0	3	0.005138019	56.10660281	5821.710382	;	%	LNG
    2	29624.1	0	3	0.003292734	61.03857345	3166.729751	;	%	LNG
    2	29624.1	0	3	0.003507227	65.01469671	3373.01419	;	%	LNG
    2	23699.28	0	3	0.002225588	48.00564815	2490.571218	;	%	LNG
    2	47398.56	0	3	0.004601045	50.24290385	5213.283648	;	%	LNG
    2	47398.56	0	3	0.005189187	56.66535106	5879.686989	;	%	LNG
    2	47398.56	0	3	0.00498398	54.42451217	5647.17398	;	%	LNG
    2	12606	0	3	0.03021238	26.96907006	2200.231626	;	%	Coal
    2	12606	0	3	0.02905364	25.93474864	2115.848045	;	%	Coal
    2	12606	0	3	0.02949144	26.32544964	2147.722808	;	%	Coal
    2	11345.4	0	3	0.02567466	22.9696403	1683.383225	;	%	Coal
    2	15127.2	0	3	0.02935504	25.93904663	2563.548589	;	%	Coal
    2	12606	0	3	0.02954072	26.36937889	2151.306711	;	%	Coal
    2	12606	0	3	0.03017982	26.93988995	2197.85101	;	%	Coal
    2	11345.4	0	3	0.03013318	26.95835981	1975.705761	;	%	Coal
    2	0	0	3	0.003036431	8.292257296	0	;	%	Nuclear
    2	0	0	3	0.002488928	6.048387453	0	;	%	Nuclear
    2	0	0	3	0.002216052	5.385267407	0	;	%	Nuclear
    2	0	0	3	0.002465857	5.992320854	0	;	%	Nuclear
    2	0	0	3	0.002166224	5.26417786	0	;	%	Nuclear
    2	0	0	3	0.002016009	4.801709639	0	;	%	Nuclear
    2	0	0	3	0.002075879	4.944308729	0	;	%	Nuclear
    2	5924.82	0	3	0.005345829	36.87241612	637.656761	;	%	LNG
    2	47398.56	0	3	0.00477091	52.09781206	5405.751875	;	%	LNG
    2	47398.56	0	3	0.005298641	57.86057388	6003.705211	;	%	LNG
    2	47398.56	0	3	0.004629736	50.55620672	5245.792452	;	%	LNG
    2	6303	0	3	0.02862178	25.7868722	1827.729401	;	%	Coal
    2	8824.2	0	3	0.02916122	26.20532122	1488.148001	;	%	Coal
    2	0	0	3	0.002093114	5.086512482	0	;	%	Nuclear
    2	0	0	3	0.002257314	5.485537961	0	;	%	Nuclear
    2	0	0	3	0.002219991	5.394838185	0	;	%	Nuclear
    2	0	0	3	0.002096917	5.095755455	0	;	%	Nuclear
    2	0	0	3	0.002281964	5.435158894	0	;	%	Nuclear
    2	0	0	3	0.002403539	5.724725211	0	;	%	Nuclear
    2	0	0	3	0.002217254	5.388186707	0	;	%	Nuclear
    2	0	0	3	0.002197161	5.339360046	0	;	%	Nuclear
    2	0	0	3	0.001995453	4.16159826	0	;	%	Nuclear
    2	0	0	3	0.001715461	3.577662996	0	;	%	Nuclear
    2	0	0	3	0.001778041	3.70817768	0	;	%	Nuclear
    2	21544.8	0	3	0.002339635	50.46562034	2618.196532	;	%	LNG
    2	12606	0	3	0.0265221	23.67492985	1931.484077	;	%	Coal
    2	12606	0	3	0.02606164	23.26392503	1897.952858	;	%	Coal
    2	12606	0	3	0.02681822	23.93920955	1953.044945	;	%	Coal
    2	12606	0	3	0.02975478	26.56057184	2166.904904	;	%	Coal
    2	12606	0	3	0.02721884	24.29690952	1982.227367	;	%	Coal
    2	11345.4	0	3	0.03030918	27.11592314	1987.253155	;	%	Coal
    2	47398.56	0	3	0.004825899	52.6982868	5468.05809	;	%	LNG
    2	47398.56	0	3	0.004614698	50.3919949	5228.753572	;	%	LNG
    2	41473.74	0	3	0.004151623	47.5366803	4932.481586	;	%	LNG
    2	13866.6	0	3	0.02754884	24.49033832	2206.10814	;	%	Coal
    2	12606	0	3	0.02672758	23.85836416	1946.449293	;	%	Coal
    2	12606	0	3	0.02838572	25.33854588	2067.207727	;	%	Coal
    2	12606	0	3	0.02852036	25.45868003	2077.008692	;	%	Coal
    2	11345.4	0	3	0.02840706	25.4142174	1862.539712	;	%	Coal
    2	41473.74	0	3	0.004547713	52.07197079	5403.070543	;	%	LNG
    2	41473.74	0	3	0.004411317	50.5102111	5241.019874	;	%	LNG
    2	23699.28	0	3	0.002248107	48.49138028	2515.771388	;	%	LNG
    2	11345.4	0	3	0.02656764	23.76848326	1741.928279	;	%	Coal
    2	29624.1	0	3	0.003781487	70.09875597	3636.779228	;	%	LNG
    2	13866.6	0	3	0.02949914	26.22398471	2362.276314	;	%	Coal
    2	12606	0	3	0.02609464	23.29334293	1900.352874	;	%	Coal
    2	12606	0	3	0.0278355	24.84736387	2027.13537	;	%	Coal
    2	12606	0	3	0.02888512	25.78423435	2103.56856	;	%	Coal
    2	12606	0	3	0.02576816	23.00188453	1876.574672	;	%	Coal
    2	11345.4	0	3	0.02997896	26.8205252	1965.604233	;	%	Coal
    2	0	0	3	0.002076182	5.045367131	0	;	%	Nuclear
    2	0	0	3	0.002101611	5.10716125	0	;	%	Nuclear
    2	0	0	3	0.002324059	5.535420409	0	;	%	Nuclear
    2	0	0	3	0.002404056	5.725956486	0	;	%	Nuclear
    2	0	0	3	0.001659055	3.338642759	0	;	%	Nuclear
    2	23699.28	0	3	0.002255913	48.65975234	2524.506664	;	%	LNG
    2	53323.38	0	3	0.006162351	58.145443	6033.263684	;	%	LNG
    2	53323.38	0	3	0.005959016	56.22685735	5834.188184	;	%	LNG
    2	0	0	3	0.002787101	7.611356666	0	;	%	Nuclear
    2	0	0	3	0.002589901	7.072820045	0	;	%	Nuclear
    2	41473.74	0	3	0.004349065	49.79741857	5167.059386	;	%	LNG
    2	29624.1	0	3	0.003444712	63.85584088	3312.891827	;	%	LNG
    2	29624.1	0	3	0.003759294	69.68736468	3615.435922	;	%	LNG
    2	23699.28	0	3	0.002193528	47.31413069	2454.694742	;	%	LNG
    2	41473.74	0	3	0.004445024	50.89616612	5281.06718	;	%	LNG
    2	47398.56	0	3	0.004908156	53.59652525	5561.26074	;	%	LNG
    2	41473.74	0	3	0.004253628	48.70465336	5053.672329	;	%	LNG
    2	29624.1	0	3	0.003827745	70.95626507	3681.267483	;	%	LNG
    2	53323.38	0	3	0.006671083	62.94563192	6531.338924	;	%	LNG
    2	53323.38	0	3	0.00600571	56.66743609	5879.903336	;	%	LNG
    2	53323.38	0	3	0.006110409	57.6553342	5982.409215	;	%	LNG
    2	53323.38	0	3	0.006358116	59.99259789	6224.927414	;	%	LNG
    2	47398.56	0	3	0.004819289	52.62611156	5460.569072	;	%	LNG
    2	47398.56	0	3	0.005297695	57.85024762	6002.633741	;	%	LNG
    2	47398.56	0	3	0.004644605	50.71857822	5262.640377	;	%	LNG
    2	47398.56	0	3	0.00534413	58.3573128	6055.247631	;	%	LNG
    2	41473.74	0	3	0.004370883	50.04723858	5192.981108	;	%	LNG
];

%   genthermal data// UT, DT, inistate, startupdelay 1, 2, 3 ==> hour, initialpower, ramp_up, ramp_down, startup_limit, shutdown_limit ==> MW
%	type_thermal, UT, DT, inistate, initialpower, ramp_up, ramp_down, startup_limit, shutdown_limit, startup1, startup2, startup3, startupdelay1, startupdelay2, startupdelay3
mpc.genthermal = [
	3	6	12	24	799.9999999	528	528	528	528	10084.8	11093.28	12101.76	12	24	48	;	%	Coal
	3	6	12	24	714.3126288	528	528	528	528	10084.8	11093.28	12101.76	12	24	48	;	%	Coal
	3	6	12	24	730	481.8	481.8	481.8	481.8	9202.38	10122.618	11042.856	12	24	48	;	%	Coal
	3	4	3	24	400	400	400	400	400	21544.8	23699.28	25853.76	3	6	12	;	%	LNG
	3	6	12	24	200	132	132	132	132	2521.2	2773.32	3025.44	12	24	48	;	%	Coal
	3	6	12	24	656.1200546	792	792	792	792	15127.2	16639.92	18152.64	12	24	48	;	%	Coal
	3	6	12	24	710.9223173	660	660	660	660	12606	13866.6	15127.2	12	24	48	;	%	Coal
	3	4	3	24	800	800	800	800	800	43089.6	47398.56	51707.52	3	6	12	;	%	LNG
	3	4	3	24	800	800	800	800	800	43089.6	47398.56	51707.52	3	6	12	;	%	LNG
	3	6	12	24	700	462	462	462	462	8824.2	9706.62	10589.04	12	24	48	;	%	Coal
	3	6	12	24	700	462	462	462	462	8824.2	9706.62	10589.04	12	24	48	;	%	Coal
	3	4	3	24	0	550	550	550	550	29624.1	32586.51	35548.92	3	6	12	;	%	LNG
	3	4	3	24	0	550	550	550	550	29624.1	32586.51	35548.92	3	6	12	;	%	LNG
	3	4	3	24	440	440	440	440	440	23699.28	26069.208	28439.136	3	6	12	;	%	LNG
	3	4	3	24	941.8602707	990	990	990	990	53323.38	58655.718	63988.056	3	6	12	;	%	LNG
	3	6	12	24	690.9954618	726	726	726	726	13866.6	15253.26	16639.92	12	24	48	;	%	Coal
	3	6	12	24	869.0857643	660	660	660	660	12606	13866.6	15127.2	12	24	48	;	%	Coal
	3	6	12	24	852.1744399	660	660	660	660	12606	13866.6	15127.2	12	24	48	;	%	Coal
	3	6	12	24	733.6869378	660	660	660	660	12606	13866.6	15127.2	12	24	48	;	%	Coal
	3	6	12	24	899.9999999	594	594	594	594	11345.4	12479.94	13614.48	12	24	48	;	%	Coal
	3	4	3	24	880	880	880	880	880	47398.56	52138.416	56878.272	3	6	12	;	%	LNG
	3	4	3	24	550	550	550	550	550	29624.1	32586.51	35548.92	3	6	12	;	%	LNG
	3	4	3	24	0	550	550	550	550	29624.1	32586.51	35548.92	3	6	12	;	%	LNG
	3	4	3	24	850	850	850	850	850	45782.7	50360.97	54939.24	3	6	12	;	%	LNG
	3	4	3	24	420	420	420	420	420	22622.04	24884.244	27146.448	3	6	12	;	%	LNG
	3	4	3	24	880	880	880	880	880	47398.56	52138.416	56878.272	3	6	12	;	%	LNG
	3	4	3	24	0	550	550	550	550	29624.1	32586.51	35548.92	3	6	12	;	%	LNG
	3	4	3	24	989.9999999	990	990	990	990	53323.38	58655.718	63988.056	3	6	12	;	%	LNG
	3	4	3	24	900	900	900	900	900	48475.8	53323.38	58170.96	3	6	12	;	%	LNG
	3	4	3	24	880	880	880	880	880	47398.56	52138.416	56878.272	3	6	12	;	%	LNG
	3	4	3	24	880	880	880	880	880	47398.56	52138.416	56878.272	3	6	12	;	%	LNG
	3	4	3	24	550	550	550	550	550	29624.1	32586.51	35548.92	3	6	12	;	%	LNG
	3	4	3	24	0	550	550	550	550	29624.1	32586.51	35548.92	3	6	12	;	%	LNG
	3	4	3	24	440	440	440	440	440	23699.28	26069.208	28439.136	3	6	12	;	%	LNG
	3	4	3	24	880	880	880	880	880	47398.56	52138.416	56878.272	3	6	12	;	%	LNG
	3	4	3	24	880	880	880	880	880	47398.56	52138.416	56878.272	3	6	12	;	%	LNG
	3	4	3	24	880	880	880	880	880	47398.56	52138.416	56878.272	3	6	12	;	%	LNG
	3	6	12	24	686.1741902	660	660	660	660	12606	13866.6	15127.2	12	24	48	;	%	Coal
	3	6	12	24	731.3409297	660	660	660	660	12606	13866.6	15127.2	12	24	48	;	%	Coal
	3	6	12	24	713.8602113	660	660	660	660	12606	13866.6	15127.2	12	24	48	;	%	Coal
	3	6	12	24	885.334811	594	594	594	594	11345.4	12479.94	13614.48	12	24	48	;	%	Coal
	3	6	12	24	739.8539343	792	792	792	792	15127.2	16639.92	18152.64	12	24	48	;	%	Coal
	3	6	12	24	727.919824	660	660	660	660	12606	13866.6	15127.2	12	24	48	;	%	Coal
	3	6	12	24	703.053238	660	660	660	660	12606	13866.6	15127.2	12	24	48	;	%	Coal
	3	6	12	24	703.8349502	594	594	594	594	11345.4	12479.94	13614.48	12	24	48	;	%	Coal
	3	8	12	24	0	252	252	252	252	0	0	0	8	16	32	;	%	Nuclear
	3	8	12	24	1000	180	180	180	180	0	0	0	8	16	32	;	%	Nuclear
	3	8	12	24	1000	180	180	180	180	0	0	0	8	16	32	;	%	Nuclear
	3	8	12	24	1000	180	180	180	180	0	0	0	8	16	32	;	%	Nuclear
	3	8	12	24	1000	180	180	180	180	0	0	0	8	16	32	;	%	Nuclear
	3	8	12	24	950	171	171	171	171	0	0	0	8	16	32	;	%	Nuclear
	3	8	12	24	950	171	171	171	171	0	0	0	8	16	32	;	%	Nuclear
	3	4	3	24	110	110	110	110	110	5924.82	6517.302	7109.784	3	6	12	;	%	LNG
	3	4	3	24	880	880	880	880	880	47398.56	52138.416	56878.272	3	6	12	;	%	LNG
	3	4	3	24	880	880	880	880	880	47398.56	52138.416	56878.272	3	6	12	;	%	LNG
	3	4	3	24	880	880	880	880	880	47398.56	52138.416	56878.272	3	6	12	;	%	LNG
	3	6	12	24	500	330	330	330	330	6303	6933.3	7563.6	12	24	48	;	%	Coal
	3	6	12	24	700	462	462	462	462	8824.2	9706.62	10589.04	12	24	48	;	%	Coal
	3	8	12	24	1000	180	180	180	180	0	0	0	8	16	32	;	%	Nuclear
	3	8	12	24	1000	180	180	180	180	0	0	0	8	16	32	;	%	Nuclear
	3	8	12	24	0	180	180	180	180	0	0	0	8	16	32	;	%	Nuclear
	3	8	12	24	0	180	180	180	180	0	0	0	8	16	32	;	%	Nuclear
	3	8	12	24	950	171	171	171	171	0	0	0	8	16	32	;	%	Nuclear
	3	8	12	24	950	171	171	171	171	0	0	0	8	16	32	;	%	Nuclear
	3	8	12	24	0	180	180	180	180	0	0	0	8	16	32	;	%	Nuclear
	3	8	12	24	1000	180	180	180	180	0	0	0	8	16	32	;	%	Nuclear
	3	8	12	24	700	126	126	126	126	0	0	0	8	16	32	;	%	Nuclear
	3	8	12	24	700	126	126	126	126	0	0	0	8	16	32	;	%	Nuclear
	3	8	12	24	0	126	126	126	126	0	0	0	8	16	32	;	%	Nuclear
	3	4	3	24	400	400	400	400	400	21544.8	23699.28	25853.76	3	6	12	;	%	LNG
	3	6	12	24	846.5876921	660	660	660	660	12606	13866.6	15127.2	12	24	48	;	%	Coal
	3	6	12	24	869.4305439	660	660	660	660	12606	13866.6	15127.2	12	24	48	;	%	Coal
	3	6	12	24	832.3126434	660	660	660	660	12606	13866.6	15127.2	12	24	48	;	%	Coal
	3	6	12	24	706.1205774	660	660	660	660	12606	13866.6	15127.2	12	24	48	;	%	Coal
	3	6	12	24	813.4914491	660	660	660	660	12606	13866.6	15127.2	12	24	48	;	%	Coal
	3	6	12	24	684.0431442	594	594	594	594	11345.4	12479.94	13614.48	12	24	48	;	%	Coal
	3	4	3	24	880	880	880	880	880	47398.56	52138.416	56878.272	3	6	12	;	%	LNG
	3	4	3	24	880	880	880	880	880	47398.56	52138.416	56878.272	3	6	12	;	%	LNG
	3	4	3	24	770	770	770	770	770	41473.74	45621.114	49768.488	3	6	12	;	%	LNG
	3	6	12	24	798.2892721	726	726	726	726	13866.6	15253.26	16639.92	12	24	48	;	%	Coal
	3	6	12	24	834.6408658	660	660	660	660	12606	13866.6	15127.2	12	24	48	;	%	Coal
	3	6	12	24	759.8130205	660	660	660	660	12606	13866.6	15127.2	12	24	48	;	%	Coal
	3	6	12	24	754.1199542	660	660	660	660	12606	13866.6	15127.2	12	24	48	;	%	Coal
	3	6	12	24	757.9103185	594	594	594	594	11345.4	12479.94	13614.48	12	24	48	;	%	Coal
	3	4	3	24	770	770	770	770	770	41473.74	45621.114	49768.488	3	6	12	;	%	LNG
	3	4	3	24	770	770	770	770	770	41473.74	45621.114	49768.488	3	6	12	;	%	LNG
	3	4	3	24	440	440	440	440	440	23699.28	26069.208	28439.136	3	6	12	;	%	LNG
	3	6	12	24	856.2198199	594	594	594	594	11345.4	12479.94	13614.48	12	24	48	;	%	Coal
	3	4	3	24	0	550	550	550	550	29624.1	32586.51	35548.92	3	6	12	;	%	LNG
	3	6	12	24	703.6708001	726	726	726	726	13866.6	15253.26	16639.92	12	24	48	;	%	Coal
	3	6	12	24	851.6309991	660	660	660	660	12606	13866.6	15127.2	12	24	48	;	%	Coal
	3	6	12	24	770.4547741	660	660	660	660	12606	13866.6	15127.2	12	24	48	;	%	Coal
	3	6	12	24	726.2410066	660	660	660	660	12606	13866.6	15127.2	12	24	48	;	%	Coal
	3	6	12	24	868.0764764	660	660	660	660	12606	13866.6	15127.2	12	24	48	;	%	Coal
	3	6	12	24	682.4590713	594	594	594	594	11345.4	12479.94	13614.48	12	24	48	;	%	Coal
	3	8	12	24	1000	180	180	180	180	0	0	0	8	16	32	;	%	Nuclear
	3	8	12	24	1000	180	180	180	180	0	0	0	8	16	32	;	%	Nuclear
	3	8	12	24	950	171	171	171	171	0	0	0	8	16	32	;	%	Nuclear
	3	8	12	24	950	171	171	171	171	0	0	0	8	16	32	;	%	Nuclear
	3	8	12	24	650	117	117	117	117	0	0	0	8	16	32	;	%	Nuclear
	3	4	3	24	440	440	440	440	440	23699.28	26069.208	28439.136	3	6	12	;	%	LNG
	3	4	3	24	948.9936308	990	990	990	990	53323.38	58655.718	63988.056	3	6	12	;	%	LNG
	3	4	3	24	990	990	990	990	990	53323.38	58655.718	63988.056	3	6	12	;	%	LNG
	3	8	12	24	1400	252	252	252	252	0	0	0	8	16	32	;	%	Nuclear
	3	8	12	24	1400	252	252	252	252	0	0	0	8	16	32	;	%	Nuclear
	3	4	3	24	770	770	770	770	770	41473.74	45621.114	49768.488	3	6	12	;	%	LNG
	3	4	3	24	550	550	550	550	550	29624.1	32586.51	35548.92	3	6	12	;	%	LNG
	3	4	3	24	0	550	550	550	550	29624.1	32586.51	35548.92	3	6	12	;	%	LNG
	3	4	3	24	440	440	440	440	440	23699.28	26069.208	28439.136	3	6	12	;	%	LNG
	3	4	3	24	770	770	770	770	770	41473.74	45621.114	49768.488	3	6	12	;	%	LNG
	3	4	3	24	880	880	880	880	880	47398.56	52138.416	56878.272	3	6	12	;	%	LNG
	3	4	3	24	770	770	770	770	770	41473.74	45621.114	49768.488	3	6	12	;	%	LNG
	3	4	3	24	0	550	550	550	550	29624.1	32586.51	35548.92	3	6	12	;	%	LNG
	3	4	3	24	0	990	990	990	990	53323.38	58655.718	63988.056	3	6	12	;	%	LNG
	3	4	3	24	990	990	990	990	990	53323.38	58655.718	63988.056	3	6	12	;	%	LNG
	3	4	3	24	988.308174	990	990	990	990	53323.38	58655.718	63988.056	3	6	12	;	%	LNG
	3	4	3	24	0	990	990	990	990	53323.38	58655.718	63988.056	3	6	12	;	%	LNG
	3	4	3	24	880	880	880	880	880	47398.56	52138.416	56878.272	3	6	12	;	%	LNG
	3	4	3	24	880	880	880	880	880	47398.56	52138.416	56878.272	3	6	12	;	%	LNG
	3	4	3	24	880	880	880	880	880	47398.56	52138.416	56878.272	3	6	12	;	%	LNG
	3	4	3	24	880	880	880	880	880	47398.56	52138.416	56878.272	3	6	12	;	%	LNG
	3	4	3	24	770	770	770	770	770	41473.74	45621.114	49768.488	3	6	12	;	%	LNG
];




save('KPG193_ver1_2.mat', 'mpc');